*HEADING
Kotoba CalculiX axial unit cube verification
*NODE
1, 0., 0., 0.
2, 1., 0., 0.
3, 1., 1., 0.
4, 0., 1., 0.
5, 0., 0., 1.
6, 1., 0., 1.
7, 1., 1., 1.
8, 0., 1., 1.
*ELEMENT, TYPE=C3D8, ELSET=EALL
1, 1,2,3,4,5,6,7,8
*SOLID SECTION, ELSET=EALL, MATERIAL=STEEL
*MATERIAL, NAME=STEEL
*ELASTIC
1000000., 0.3
*BOUNDARY
1, 1, 3
2, 2, 3
3, 3, 3
4, 3, 3
*STEP
*STATIC
*CLOAD
5, 3, 250.
6, 3, 250.
7, 3, 250.
8, 3, 250.
*NODE FILE
U
*EL FILE
S, E
*END STEP
